/*--------------------------------*- C++ -*----------------------------------*\
| =========                 |                                                 |
| \\      /  F ield         | foam-extend: Open Source CFD                    |
|  \\    /   O peration     | Version:     4.1                                |
|   \\  /    A nd           | Web:         http://www.foam-extend.org         |
|    \\/     M anipulation  |                                                 |
\*---------------------------------------------------------------------------*/
FoamFile
{
    version     2.0;
    format      ascii;
    class       dictionary;
    object      blockMeshDict;
}
// * * * * * * * * * * * * * * * * * * * * * * * * * * * * * * * * * * * * * //

convertToMeters 1;

vertices
(
    (-1 0 -1.25)
    (3 0 -1.25)
    (3 0.5 -1.25)
    (-1 0.5 -1.25)
    (-1 0 1.25)
    (3 0 1.25)
    (3 0.5 1.25)
    (-1 0.5 1.25)
);

blocks
(
    hex (0 1 2 3 4 5 6 7) (80 10 50) simpleGrading (1 1 1)
);

edges
(
);

boundary
(
    frontAndBack
    {
        type symmetryPlane;
        faces
        (
            (0 3 2 1)
            (4 5 6 7)
        );
    }

    in
    {
        type patch;
        faces
        (
            (0 4 7 3)
        );
    }

    out
    {
        type patch;
        faces
        (
            (2 6 5 1)
        );
    }

    bottom
    {
        type wall;
        faces
        (
            (1 5 4 0)
        );
    }

    top
    {
        type patch;
        faces
        (
            (3 7 6 2)
        );
    }
);


// ************************************************************************* //